<?xml version="1.0" encoding="utf-8"?>
<LinearLayout xmlns:android="http://schemas.android.com/apk/res/android"
    xmlns:app="http://schemas.android.com/apk/res-auto"
    android:layout_width="match_parent"

    android:layout_height="match_parent"

    android:background="@color/colorPrimaryDark"
    android:fitsSystemWindows="true"
    android:orientation="vertical">


    <android.support.v7.widget.Toolbar
        android:id="@+id/toolbar"
        android:layout_width="match_parent"
        android:layout_height="?attr/actionBarSize"
        android:background="@color/colorPrimary"
        android:elevation="3dp"
        android:fitsSystemWindows="true"
        app:popupTheme="@style/ThemeOverlay.AppCompat.Light"
        app:theme="@style/ThemeOverlay.AppCompat.Dark.ActionBar"
        app:titleTextAppearance="@style/Appbar_apperance">

    </android.support.v7.widget.Toolbar>

    <LinearLayout
        android:orientation="vertical"
        android:layout_width="match_parent"
        android:layout_height="wrap_content"
        android:background="@color/bg_color">

        <net.suntrans.suntransyanshi.views.SegmentedGroup xmlns:segmentedgroup="http://schemas.android.com/apk/res-auto"
            android:id="@+id/segmented_group"
            android:layout_width="match_parent"
            android:layout_height="wrap_content"
            android:layout_marginBottom="8dp"
            android:layout_marginLeft="@dimen/activity_horizontal_margin"
            android:layout_marginRight="@dimen/activity_horizontal_margin"
            android:layout_marginTop="@dimen/activity_horizontal_margin"
            android:background="@color/bg_color"
            android:orientation="horizontal"
            android:padding="4dp"
            segmentedgroup:sc_border_width="1dp"
            segmentedgroup:sc_corner_radius="2dp"
            segmentedgroup:sc_tint_color="@color/colorPrimary">

            <RadioButton
                android:id="@+id/radio0"
                style="@style/RadioButton"
                android:layout_width="wrap_content"
                android:layout_height="wrap_content"
                android:layout_weight=".5"
                android:checked="true"
                android:text="本地" />

            <RadioButton
                android:id="@+id/radio1"
                style="@style/RadioButton"
                android:layout_width="wrap_content"
                android:layout_height="wrap_content"
                android:layout_weight=".5"
                android:text="直连" />

            <RadioButton
                android:id="@+id/radio2"
                style="@style/RadioButton"
                android:layout_width="wrap_content"
                android:layout_height="wrap_content"
                android:layout_weight=".5"
                android:text="远程" />
        </net.suntrans.suntransyanshi.views.SegmentedGroup>

    </LinearLayout>

    <FrameLayout
        android:id="@+id/content"
        android:layout_width="match_parent"
        android:layout_height="match_parent"
        android:layout_below="@+id/toolbar"
        android:background="@color/bg_color"
        android:paddingTop="@dimen/activity_vertical_margin"></FrameLayout>
</LinearLayout>